function mpc= case661
%CASE30    Power flow data for 30 bus, 6 generator case.
%   Please see 'help caseformat' for details on the case file format.
%
%   Based on data from ...
%     Alsac, O. & Stott, B., "Optimal Load Flow with Steady State Security",
%     IEEE Transactions on Power Apparatus and Systems, Vol. PAS 93, No. 3,
%     1974, pp. 745-751.
%   ... with branch parameters rounded to nearest 0.01, shunt values divided
%   by 100 and shunt on bus 10 moved to bus 5, load at bus 5 zeroed out.
%   Generator locations, costs and limits and bus areas were taken from ...
%     Ferrero, R.W., Shahidehpour, S.M., Ramesh, V.C., "Transaction analysis
%     in deregulated power systems using game theory", IEEE Transactions on
%     Power Systems, Vol. 12, No. 3, Aug 1997, pp. 1340-1347.
%   Generator Q limits were derived from Alsac & Stott, using their Pmax
%   capacities. V limits and line |S| limits taken from Alsac & Stott.

%   MATPOWER
%   $Id: case30.m,v 1.8 2007/09/17 16:07:48 ray Exp $

%%-----  Power Flow Data  -----%%
%% system MVA base
mpc.baseMVA = 100;
% mpc.version = '2';

%% bus data
%	bus_i	type	Pd	Qd	Gs	Bs	area	Vm	Va	baseKV	zone	Vmax	Vmin
mpc.bus = [1		1	123.168	27.7231	0	0	-6515	1.02395	0	220	1	1.06	0.94
2		1	577.528	112.623	0	0	-6515	1.01204	0	220	1	1.06	0.94
3		1	201.276	36.4828	0	0	-6515	1.02578	0	220	1	1.06	0.94
4		1	146.026	20.8003	0	0	-6515	1.04455	0	220	1	1.06	0.94
5		1	122.262	10.5113	0	0	-6515	1.0719	0	220	1	1.06	0.94
6		1	90.7619	7.77103	0	0	-6515	1.04969	0	220	1	1.06	0.94
7		1	181.46	20.3603	0	0	-6515	1.04109	0	220	1	1.06	0.94
8		1	321.292	58.3975	0	0	-6515	1.02397	0	220	1	1.06	0.94
9		1	196.275	36.0923	0	0	-6515	1.04494	0	220	1	1.06	0.94
10		1	329.659	21.6022	0	0	-6515	1.04221	0	220	1	1.06	0.94
11		1	100.618	7.52027	0	0	-6515	1.04331	0	220	1	1.06	0.94
12		1	6.88465	5.35312	0	0	-6515	1.04458	0	220	1	1.06	0.94
13		1	0	-0.0325758	0	0	-6515	0.97912	0	34.5	1	1.06	0.94
14		1	0.216909	0.0308003	0	0	-6515	0.977984	0	34.5	1	1.06	0.94
15		1	-0.000636546	-0.0965168	0	0	-6515	0.978173	0	34.5	1	1.06	0.94
16		1	-0.000636533	-0.0960156	0	0	-6515	0.978173	0	34.5	1	1.06	0.94
17		1	1.14058	3.83829	0	0	-6515	0.978003	0	34.5	1	1.06	0.94
18		1	-0.441716	6.66731	0	0	-6515	0.978115	0	34.5	1	1.06	0.94
19		1	-6.8122	6.90566	0	0	-6515	0.979102	0	34.5	1	1.06	0.94
20		1	-1.87389	5.10434	0	0	-6515	0.978116	0	34.5	1	1.06	0.94
21		1	0.791172	0.498877	0	0	-6515	1.04564	0	500	1	1.06	0.94
22		1	283.326	90.6463	0	0	-6515	1.03483	0	220	1	1.06	0.94
23		1	120.39	12.1212	0	0	-6515	1.03156	0	220	1	1.06	0.94
24		1	353.901	54.949	0	0	-6515	1.04228	0	220	1	1.06	0.94
25		1	-50.6481	-16.9575	0	0	-6515	1.05408	0	220	1	1.06	0.94
26		1	183.475	11.0826	0	0	-6515	1.06664	0	220	1	1.06	0.94
27		1	144.527	21.1988	0	0	-6515	1.04425	0	220	1	1.06	0.94
28		1	64.15	12.588	0	0	-6515	1.02398	0	220	1	1.06	0.94
29		1	217.205	34.0166	0	0	-6515	1.04316	0	220	1	1.06	0.94
30		1	-102.942	-17.6863	0	0	-6515	1.02879	0	15.75	1	1.06	0.94
31		1	-88.238	-17.1103	0	0	-6515	1.02883	0	15.75	1	1.06	0.94
32		1	-108.142	-7.27173	0	0	-6515	1.06316	0	220	1	1.06	0.94
33		1	162.24	63.1511	0	0	-6515	1.03452	0	220	1	1.06	0.94
34		1	166.296	22.4195	0	0	-6515	1.03322	0	220	1	1.06	0.94
35		1	334.625	11.9796	0	0	-6515	1.07492	0	220	1	1.06	0.94
36		1	52.3943	5.33369	0	0	-6515	1.05689	0	220	1	1.06	0.94
37		1	203.379	41.9565	0	0	-6515	1.04277	0	220	1	1.06	0.94
38		1	99.0572	20.3224	0	0	-6515	1.02905	0	220	1	1.06	0.94
39		1	94.1839	20.8868	0	0	-6515	1.03771	0	220	1	1.06	0.94
40		1	74.0001	15.848	0	0	-6515	1.0295	0	220	1	1.06	0.94
41		1	254.64	1.11726	0	0	-6515	1.02309	0	220	1	1.06	0.94
42		1	474.401	126.93	0	0	-6515	1.03675	0	220	1	1.06	0.94
43		1	-1.03E-05	0.014377	0	0	-6515	1.04468	0	220	1	1.06	0.94
44		1	-3.53E-06	0.307014	0	0	-6515	1.04465	0	220	1	1.06	0.94
45		1	424.017	68.522	0	0	-6515	1.02145	0	220	1	1.06	0.94
46		1	226.709	24.1678	0	0	-6515	1.03563	0	220	1	1.06	0.94
47		1	164.448	41.4024	0	0	-6515	1.03444	0	220	1	1.06	0.94
48		1	508.206	99.1017	0	0	-6515	1.03694	0	220	1	1.06	0.94
49		1	-10.6888	0.249785	0	0	-6515	1.06478	0	220	1	1.06	0.94
50		1	41.6372	7.28237	0	0	-6515	1.08439	0	220	1	1.06	0.94
51		1	21.4059	3.37312	0	0	-6515	1.05712	0	220	1	1.06	0.94
52		1	240.433	14.42	0	0	-6515	1.02438	0	220	1	1.06	0.94
53		1	245.601	51.978	0	0	-6515	1.04824	0	220	1	1.06	0.94
54		2	0	0	0	0	-6515	0.980507	0	20	1	1.06	0.94
55		2	0	0	0	0	-6515	0.978175	0	20	1	1.06	0.94
56		1	-317.179	-115.615	0	0	-6515	0.988526	0	20	1	1.06	0.94
57		1	-1.88551	4.87532	0	0	-6515	1.05286	0	220	1	1.06	0.94
58		1	191.474	42.9303	0	0	-6515	1.0457	0	220	1	1.06	0.94
59		1	278.173	70.303	0	0	-6515	1.03578	0	220	1	1.06	0.94
60		1	128.358	30.5873	0	0	-6515	1.0225	0	220	1	1.06	0.94
61		1	0.0907517	0.184919	0	0	-6515	1.04446	0	220	1	1.06	0.94
62		1	0	-8.84621	0	0	-6515	1.04912	0	220	1	1.06	0.94
63		1	-0.00502705	-8.60097	0	0	-6515	1.04902	0	220	1	1.06	0.94
64		1	-1014.34	30.0787	0	0	-6515	1.01308	0	220	1	1.06	0.94
65		1	-0.00680161	-75.0415	0	0	-6515	1.05416	0	34.5	1	1.06	0.94
66		1	-0.00651688	-71.4513	0	0	-6515	1.02162	0	34.5	1	1.06	0.94
67		1	-0.00683156	-69.1126	0	0	-6515	1.01969	0	34.5	1	1.06	0.94
68		1	0.365355	-8.60933	0	0	-6515	1.01344	0	34.5	1	1.06	0.94
69		1	23.8777	65.2284	0	0	-6515	0.981547	0	34.5	1	1.06	0.94
70		1	17.2477	56.6104	0	0	-6515	0.980781	0	34.5	1	1.06	0.94
71		1	0.00133382	23.232	0	0	-6515	1.0556	0	500	1	1.06	0.94
72		1	-26.476	-70.0828	0	0	-6515	1.05265	0	500	1	1.06	0.94
73		1	0.905093	7.18186	0	0	-6515	1.05652	0	220	1	1.06	0.94
74		1	178.468	27.0162	0	0	-6515	1.02607	0	220	1	1.06	0.94
75		1	84.9307	37.4729	0	0	-6515	1.03977	0	220	1	1.06	0.94
76		1	154.535	33.9815	0	0	-6515	1.02561	0	220	1	1.06	0.94
77		1	-50.2015	-6.57929	0	0	-6515	0.954072	0	10.5	1	1.06	0.94
78		2	0	0	0	0	-6515	0.959496	0	10.5	1	1.06	0.94
79		1	-91.4498	-32.4749	0	0	-6515	0.968838	0	15.75	1	1.06	0.94
80		2	0	0	0	0	-6515	0.968821	0	15.75	1	1.06	0.94
81		1	0.469943	0.084859	0	0	-6515	1.04201	0	220	1	1.06	0.94
82		1	0.396172	-1.76229	0	0	-6515	1.02395	0	220	1	1.06	0.94
83		1	187.398	17.2643	0	0	-6515	1.02946	0	220	1	1.06	0.94
84		1	0.781066	-0.041547	0	0	-6515	1.04858	0	220	1	1.06	0.94
85		1	2.22E-14	0.0114707	0	0	-6515	1.00363	0	34.5	1	1.06	0.94
86		1	-2.22E-14	-0.0314707	0	0	-6515	1.00371	0	34.5	1	1.06	0.94
87		1	-13.3788	-18.962	0	0	-6515	1.00364	0	34.5	1	1.06	0.94
88		1	-12.355	-17.0724	0	0	-6515	1.00369	0	34.5	1	1.06	0.94
89		1	-2759.87	175.002	0	0	-6515	1.04911	0	500	1	1.06	0.94
90		1	-217.508	-46.2584	0	0	-6515	1.05611	0	220	1	1.06	0.94
91		1	153.582	20.0521	0	0	-6515	1.04428	0	220	1	1.06	0.94
% 92		1	161.02	43.2923	0	100	-6515	1.02896	0	220	3	1.06	0.94
92		1	161.02	43.2923	0	0	-6515	1.02896	0	220	3	1.06	0.94

93		1	26.9694	6.62072	0	0	-6515	1.04606	0	220	1	1.06	0.94
94		1	0.201162	1.67598	0	0	-6515	1.02956	0	220	1	1.06	0.94
95		1	365.395	57.7932	0	0	-6515	1.04579	0	220	1	1.06	0.94
96		1	259.505	48.3788	0	0	-6515	1.04683	0	220	1	1.06	0.94
97		1	85.5838	25.0276	0	0	-6515	1.05085	0	220	1	1.06	0.94
98		1	51.629	19.2681	0	0	-6515	1.03954	0	220	3	1.06	0.94
99		1	0.361053	-0.313383	0	0	-6515	1.0646	0	220	1	1.06	0.94
100		1	0	119.287	0	0	-6515	0.971389	0	34.5	1	1.06	0.94
101		1	-4.02462	111.428	0	0	-6515	1.02161	0	34.5	1	1.06	0.94
102		1	1.49648	1.79921	0	0	-6515	1.08938	0	500	1	1.06	0.94
103		1	550.412	180.448	0	0	-6515	1.00454	0	220	1	1.06	0.94
104		1	35.8249	-3.07019	0	0	-6515	1.06267	0	220	1	1.06	0.94
105		1	119.225	-1.38603	0	0	-6515	1.06975	0	220	1	1.06	0.94
106		1	40.9051	13.3116	0	0	-6515	1.0226	0	220	3	1.06	0.94
107		1	37.4871	19.1944	0	0	-6515	1.07442	0	220	1	1.06	0.94
108		1	54.9898	13.2617	0	0	-6515	1.05608	0	220	1	1.06	0.94
109		1	0.137066	2.0113	0	0	-6515	1.0523	0	220	1	1.06	0.94
110		1	0.137046	-0.419462	0	0	-6515	1.0523	0	220	1	1.06	0.94
111		1	248.435	23.4772	0	0	-6515	1.04746	0	220	1	1.06	0.94
112		2	0	0	0	0	-6515	1.00829	0	13.8	1	1.06	0.94
113		1	19.2934	1.35625	0	0	-6515	1.07083	0	220	1	1.06	0.94
114		1	-37.6798	-22.8022	0	0	-6515	1.07656	0	220	1	1.06	0.94
115		1	-0.491896	0.144444	0	0	-6515	1.04339	0	220	1	1.06	0.94
116		1	-0.0990481	-0.0362197	0	0	-6515	1.02276	0	220	1	1.06	0.94
117		1	2.22E-14	-0.0824175	0	0	-6515	0.991344	0	34.5	1	1.06	0.94
118		1	0	0.0246263	0	0	-6515	0.991218	0	34.5	1	1.06	0.94
119		1	-2.48555	-118.569	0	0	-6515	1.07242	0	34.5	1	1.06	0.94
120		1	44.869	8.79875	0	0	-6515	1.01129	0	34.5	1	1.06	0.94
121		1	6.86987	6.07878	0	0	-6515	0.991297	0	34.5	1	1.06	0.94
122		1	-0.93105	0.804585	0	0	-6515	0.991232	0	34.5	1	1.06	0.94
123		1	-41.6076	-19.2128	0	0	-6515	1.0494	0	500	1	1.06	0.94
124		1	-85.7845	-8.13986	0	0	-6515	1.05315	0	220	1	1.06	0.94
125		1	212.6	30.3923	0	0	-6515	1.02143	0	220	1	1.06	0.94
126		1	2.04373	0.319715	0	0	-6515	1.04769	0	220	1	1.06	0.94
127		2	0	0	0	0	-6515	1.00988	0	26	1	1.06	0.94
128		2	0	0	0	0	-6515	0.961991	0	26	1	1.06	0.94
129		1	967.663	46.1306	0	0	-6515	0.99908	0	400	1	1.06	0.94
130		1	-1.47556	0.166904	0	0	-6515	1.05354	0	500	1	1.06	0.94
131		1	-1.56644	-5.8419	0	0	-6515	1.05886	0	220	1	1.06	0.94
132		1	-0.163133	-0.51072	0	0	-6515	1.04339	0	220	1	1.06	0.94
133		1	-0.163128	-0.42151	0	0	-6515	1.04337	0	220	1	1.06	0.94
134		1	440.514	64.9655	0	0	-6515	1.03155	0	220	1	1.06	0.94
135		1	142.358	44.2463	0	0	-6515	1.04339	0	220	1	1.06	0.94
136		1	393.417	88.489	0	0	-6515	1.04433	0	220	1	1.06	0.94
137		1	75.3873	14.0373	0	0	-6515	1.03316	0	220	1	1.06	0.94
138		1	202.662	45.5647	0	0	-6515	1.00779	0	220	1	1.06	0.94
139		1	52.1537	12.5147	0	0	-6515	1.05734	0	220	1	1.06	0.94
140		1	103.078	17.3892	0	0	-6515	1.06331	0	220	1	1.06	0.94
141		1	490.684	42.4327	0	0	-6515	1.02604	0	220	1	1.06	0.94
142		1	-0.185358	-4.12066	0	0	-6515	1.07093	0	500	1	1.06	0.94
143		1	0.174274	-3.87931	0	0	-6515	1.0709	0	500	1	1.06	0.94
144		1	-237.763	-76.9602	0	0	-6515	1.0201	0	20	1	1.06	0.94
145		1	-228.521	-88.6667	0	0	-6515	1.02467	0	20	1	1.06	0.94
146		2	0	0	0	0	-6515	1.02699	0	20	1	1.06	0.94
147		1	-243.315	-77.2456	0	0	-6515	0.995741	0	20	1	1.06	0.94
148		1	-263.142	-93.3771	0	0	-6515	1.00096	0	20	1	1.06	0.94
149		1	-256.688	-89.9646	0	0	-6515	0.999897	0	20	1	1.06	0.94
150		1	-11.682	95.7997	0	0	-6515	1.06566	0	220	1	1.06	0.94
151		1	4.77337	1.80458	0	0	-6515	1.0434	0	220	1	1.06	0.94
152		1	-243.749	22.7132	0	0	-6515	1.10515	0	220	1	1.06	0.94
153		1	210.366	21.9641	0	0	-6515	1.04739	0	220	1	1.06	0.94
154		1	359.988	54.665	0	0	-6515	1.04119	0	220	1	1.06	0.94
155		1	-194.478	-5.67455	0	0	-6515	1.07282	0	220	1	1.06	0.94
156		1	-0.13228	-0.259636	0	0	-6515	1.04498	0	220	1	1.06	0.94
157		1	1.019	-112.917	0	0	-6515	1.04353	0	34.5	1	1.06	0.94
158		1	0.931	-112.917	0	0	-6515	1.04355	0	34.5	1	1.06	0.94
159		1	-2.3317	-33.712	0	0	-6515	0.997885	0	34.5	1	1.06	0.94
160		1	4.31515	-34.0664	0	0	-6515	0.997873	0	34.5	1	1.06	0.94
161		1	-2535.65	-145.901	0	0	-6515	1.04801	0	500	1	1.06	0.94
162		1	157.574	1.99054	0	0	-6515	1.02543	0	220	1	1.06	0.94
163		1	341.39	52.481	0	0	-6515	1.03866	0	220	1	1.06	0.94
164		1	245.204	47.8052	0	0	-6515	1.01878	0	220	1	1.06	0.94
165		1	258.152	62.5264	0	0	-6515	1.04633	0	220	1	1.06	0.94
166		1	-292.561	-68.2271	0	0	-6515	1.05554	0	220	1	1.06	0.94
167		1	101.368	22.1926	0	0	-6515	1.04061	0	220	1	1.06	0.94
168		1	-1879.76	2.90234	0	0	-6515	1.04959	0	500	1	1.06	0.94
169		1	451.531	63.2667	0	0	-6515	1.04674	0	220	1	1.06	0.94
170		1	113.498	-8.90777	0	0	-6515	1.06761	0	220	1	1.06	0.94
171		1	0.335543	-0.0619726	0	0	-6515	1.04476	0	220	1	1.06	0.94
172		1	0.897753	0.0678857	0	0	-6515	1.03564	0	220	1	1.06	0.94
173		1	-0.000956274	113.31	0	0	-6515	0.930018	0	34.5	1	1.06	0.94
174		1	-0.000116864	114.556	0	0	-6515	0.938644	0	34.5	1	1.06	0.94
175		1	0	0	0	0	-6515	0.939885	0	34.5	1	1.06	0.94
176		1	38.5058	15.6381	0	0	-6515	0.979971	0	34.5	1	1.06	0.94
177		1	2.32813	-11.8648	0	0	-6515	0.988927	0	34.5	1	1.06	0.94
178		1	-82.7907	-24.5311	0	0	-6515	0.939885	0	34.5	1	1.06	0.94
179		1	68.1447	-1.72389	0	0	-6515	1.04633	0	500	1	1.06	0.94
180		1	-536.694	-36.0981	0	0	-6515	1.06084	0	500	1	1.06	0.94
181		1	-188.774	-87.4468	0	0	-6515	1.06768	0	18	1	1.06	0.94
182		1	-242.939	82.6481	0	0	-6515	1.0607	0	500	1	1.06	0.94
183		1	-4.09E-07	-0.423163	0	0	-6515	1.04326	0	220	1	1.06	0.94
184		1	235.855	39.7084	0	0	-6515	1.0687	0	220	1	1.06	0.94
185		1	98.7466	24.985	0	0	-6515	1.0473	0	220	1	1.06	0.94
186		1	-91.0817	-9.08734	0	0	-6515	1.06932	0	220	1	1.06	0.94
187		1	0.188873	8.09369	0	0	-6515	1.06991	0	220	1	1.06	0.94
188		1	0.548265	0.128585	0	0	-6515	1.03399	0	220	1	1.06	0.94
189		1	181.974	31.3006	0	0	-6515	1.03967	0	220	1	1.06	0.94
190		1	156.731	44.626	0	0	-6515	1.02536	0	220	3	1.06	0.94
191		1	-413.53	-143.186	0	0	-6515	1.05145	0	220	1	1.06	0.94
192		1	173.784	4.68431	0	0	-6515	1.0474	0	220	1	1.06	0.94
193		1	-359.579	-102.001	0	0	-6515	1.0415	0	220	1	1.06	0.94
194		1	-444.665	-111.477	0	0	-6515	1.03636	0	220	1	1.06	0.94
195		1	31.9525	-11.9311	0	0	-6515	1.02329	0	220	3	1.06	0.94
196		1	-21.7556	-7.79626	0	0	-6515	1.04695	0	220	1	1.06	0.94
197		1	-3.12E-05	-33.4328	0	0	-6515	1.0196	0	34.5	1	1.06	0.94
198		1	-0.00066713	-0.121797	0	0	-6515	1.00163	0	34.5	1	1.06	0.94
199		1	-0.000820845	-0.150891	0	0	-6515	1.00146	0	34.5	1	1.06	0.94
200		1	5.30789	-11.4467	0	0	-6515	1.00138	0	34.5	1	1.06	0.94
201		1	9.66798	-9.46229	0	0	-6515	1.00156	0	34.5	1	1.06	0.94
202		1	7.0301	-11.9722	0	0	-6515	1.00088	0	34.5	1	1.06	0.94
203		1	-1.61626	-1.12237	0	0	-6515	1.05376	0	500	1	1.06	0.94
204		1	53.242	29.3206	0	0	-6515	1.04676	0	220	1	1.06	0.94
205		1	12.589	6.88907	0	0	-6515	1.0567	0	220	1	1.06	0.94
206		1	1.23885	31.6784	0	0	-6515	1.04553	0	500	1	1.06	0.94
207		1	1.23885	31.6784	0	0	-6515	1.04553	0	500	1	1.06	0.94
208		1	0.000339976	-5.05643	0	0	-6515	1.04936	0	500	1	1.06	0.94
209		1	164.996	-7.89762	0	0	-6515	1.02405	0	220	1	1.06	0.94
210		1	251.431	64.4465	0	0	-6515	1.0369	0	220	1	1.06	0.94
211		1	190.132	-27.0425	0	0	-6515	1.06929	0	220	1	1.06	0.94
212		1	305.72	70.8551	0	0	-6515	1.0302	0	220	1	1.06	0.94
213		1	0.390912	0.0906468	0	0	-6515	1.06285	0	220	1	1.06	0.94
214		1	0.389987	0.0952508	0	0	-6515	1.06285	0	220	1	1.06	0.94
215		1	184.9	26.675	0	0	-6515	1.02265	0	220	3	1.06	0.94
216		1	366.03	44.3559	0	0	-6515	1.02133	0	220	1	1.06	0.94
217		2	0	0	0	0	-6515	0.980521	0	15.75	1	1.06	0.94
218		1	-157.232	-33.0237	0	0	-6515	0.980454	0	15.75	1	1.06	0.94
219		1	0.888001	0.1332	0	0	-6515	1.03339	0	220	1	1.06	0.94
220		1	214.776	49.3337	0	0	-6515	1.03179	0	220	1	1.06	0.94
221		1	381.726	66.3606	0	0	-6515	1.04968	0	220	1	1.06	0.94
222		1	129.333	27.2918	0	0	-6515	1.06512	0	220	1	1.06	0.94
223		1	49.4813	-1.25427	0	0	-6515	1.0503	0	220	1	1.06	0.94
224		1	15.6202	12.6083	0	0	-6515	1.04326	0	220	1	1.06	0.94
225		1	83.2643	34.9134	0	0	-6515	1.04657	0	220	1	1.06	0.94
226		1	-0.134871	21.2241	0	0	-6515	1.02552	0	220	1	1.06	0.94
227		1	-0.0255766	-11.941	0	0	-6515	1.07348	0	220	1	1.06	0.94
228		2	0	0	0	0	-6515	0.981524	0	20	1	1.06	0.94
229		2	0	0	0	0	-6515	0.981187	0	20	1	1.06	0.94
230		1	-340.706	-112.744	0	0	-6515	0.990762	0	20	1	1.06	0.94
231		1	-2.58996	0.00335293	0	0	-6515	1.05714	0	220	1	1.06	0.94
232		1	187.95	46.3615	0	0	-6515	1.03497	0	220	1	1.06	0.94
233		1	459.801	100.682	0	0	-6515	1.03834	0	220	1	1.06	0.94
234		1	1.62186	0.400425	0	0	-6515	1.05328	0	220	1	1.06	0.94
235		1	-0.00333668	-0.384079	0	0	-6515	0.994651	0	34.5	1	1.06	0.94
236		1	-0.000809676	86.6324	0	0	-6515	0.946498	0	34.5	1	1.06	0.94
237		1	3.94213	90.2968	0	0	-6515	0.994441	0	34.5	1	1.06	0.94
238		1	6.42728	86.3468	0	0	-6515	0.996199	0	34.5	1	1.06	0.94
239		1	2.67218	6.72811	0	0	-6515	1.06562	0	500	1	1.06	0.94
240		1	184.525	6.58171	0	0	-6515	1.03989	0	220	1	1.06	0.94
241		1	37.1134	-1.13754	0	0	-6515	1.04682	0	220	1	1.06	0.94
242		1	-0.34302	2.85159	0	0	-6515	1.05296	0	220	1	1.06	0.94
243		1	-0.34302	2.85159	0	0	-6515	1.05296	0	220	1	1.06	0.94
244		1	542.4	37.2352	0	0	-6515	1.04213	0	220	1	1.06	0.94
245		1	26.3066	3.63305	0	0	-6515	1.0521	0	220	1	1.06	0.94
246		1	20.3762	2.22745	0	0	-6515	1.04156	0	220	1	1.06	0.94
247		1	174.822	-6.76634	0	0	-6515	1.01604	0	220	1	1.06	0.94
248		1	0.468086	0.0704537	0	0	-6515	1.03628	0	220	1	1.06	0.94
249		1	135.585	20.2304	0	0	-6515	1.02153	0	220	1	1.06	0.94
250		1	-69.6435	-2.67855	0	0	-6515	1.01701	0	13.8	1	1.06	0.94
251		1	-121.034	-5.70294	0	0	-6515	1.11449	0	220	1	1.06	0.94
252		1	70.9233	27.5703	0	0	-6515	1.04323	0	220	1	1.06	0.94
253		1	-338.082	-98.1432	0	0	-6515	1.00649	0	20	1	1.06	0.94
254		2	0	0	0	0	-6515	1.00732	0	20	1	1.06	0.94
255		1	15.1649	23.6926	0	0	-6515	1.06005	0	220	1	1.06	0.94
256		1	125.008	29.1884	0	0	-6515	1.04464	0	220	1	1.06	0.94
257		1	7.74E-06	1.12319	0	0	-6515	1.07602	0	220	1	1.06	0.94
258		1	8.33E-06	1.12319	0	0	-6515	1.07602	0	220	1	1.06	0.94
259		1	420.901	55.5771	0	0	-6515	0.99455	0	220	1	1.06	0.94
260		2	0	0	0	0	-6515	1.01638	0	22	1	1.06	0.94
261		2	0	0	0	0	-6515	1.0094	0	22	1	1.06	0.94
262		1	3.52171	7.18316	0	0	-6515	1.07624	0	500	1	1.06	0.94
263		1	134.797	38.4588	0	0	-6515	1.02353	0	220	1	1.06	0.94
264		1	-93.1107	-24.2704	0	0	-6515	0.993504	0	13.8	1	1.06	0.94
265		2	0	0	0	0	-6515	0.995862	0	13.8	1	1.06	0.94
266		1	-82.3829	-16.2827	0	0	-6515	1.07035	0	220	1	1.06	0.94
267		1	118.865	14.9845	0	0	-6515	1.06862	0	220	1	1.06	0.94
268		1	319.165	63.3963	0	0	-6515	1.05544	0	220	1	1.06	0.94
269		1	95.9502	-35.4126	0	0	-6515	1.04431	0	220	1	1.06	0.94
270		1	96.0042	19.1874	0	0	-6515	1.03772	0	220	1	1.06	0.94
271		1	272.633	59.7059	0	0	-6515	1.03326	0	220	1	1.06	0.94
272		1	47.9209	11.7541	0	0	-6515	1.0489	0	220	1	1.06	0.94
273		1	-9.45042	11.9715	0	0	-6515	1.03532	0	220	1	1.06	0.94
274		1	-0.000115487	163.276	0	0	-6515	0.918514	0	34.5	1	1.06	0.94
275		1	-0.000254312	163.979	0	0	-6515	0.91943	0	34.5	1	1.06	0.94
276		1	13.9249	-35.9865	0	0	-6515	0.99184	0	34.5	1	1.06	0.94
277		1	13.6744	-33.577	0	0	-6515	0.991752	0	34.5	1	1.06	0.94
278		1	-9.42415	264.5	0	0	-6515	1.05887	0	500	1	1.06	0.94
279		1	97.7318	29.2684	0	0	-6515	1.05941	0	220	1	1.06	0.94
280		1	0.148562	-0.0198063	0	0	-6515	1.02464	0	220	1	1.06	0.94
281		1	0.0197125	1.13558	0	0	-6515	0.978736	0	34.5	1	1.06	0.94
282		1	0.00223806	0.128943	0	0	-6515	0.979256	0	34.5	1	1.06	0.94
283		1	-0.000151956	-0.00873323	0	0	-6515	0.979274	0	34.5	1	1.06	0.94
284		1	15.7281	7.64587	0	0	-6515	0.979205	0	34.5	1	1.06	0.94
285		1	17.0147	13.1347	0	0	-6515	0.97931	0	34.5	1	1.06	0.94
286		1	-36.0339	6.71177	0	0	-6515	0.97927	0	34.5	1	1.06	0.94
287		1	0.104737	-0.261398	0	0	-6515	1.04572	0	500	1	1.06	0.94
288		1	-89.9036	-24.0702	0	0	-6515	0.975156	0	13.8	1	1.06	0.94
289		1	-84.7923	-23.546	0	0	-6515	0.975025	0	13.8	1	1.06	0.94
290		1	-0.00144395	0.101569	0	0	-6515	1.05056	0	220	1	1.06	0.94
291		1	0.415729	-0.361854	0	0	-6515	1.03253	0	220	1	1.06	0.94
292		1	125.748	-6.45241	0	0	-6515	1.0622	0	220	1	1.06	0.94
293		1	79.5421	16.4738	0	0	-6515	1.02409	0	220	1	1.06	0.94
294		1	3.39106	15.6848	0	0	-6515	1.05555	0	220	1	1.06	0.94
295		1	97.8072	3.96377	0	0	-6515	1.02567	0	220	3	1.06	0.94
296		1	-210.919	36.972	0	0	-6515	1.02505	0	220	3	1.06	0.94
% 297		1	250.875	-4.11924	0	100	-6515	1.02637	0	220	3	1.06	0.94
297		1	250.875	-4.11924	0	0	-6515	1.02637	0	220	3	1.06	0.94

298		1	-0.889934	-1.87257	0	0	-6515	1.05585	0	220	1	1.06	0.94
299		1	274.589	42.205	0	0	-6515	1.04145	0	220	1	1.06	0.94
300		2	0	0	0	0	-6515	0.97791	0	10.5	1	1.06	0.94
301		1	-88.8333	-32.6983	0	0	-6515	0.97354	0	15.75	1	1.06	0.94
302		1	-0.629388	0.0707861	0	0	-6515	1.04793	0	220	1	1.06	0.94
303		2	0	0	0	0	-6515	0.978427	0	20	1	1.06	0.94
304		2	0	0	0	0	-6515	0.977759	0	20	1	1.06	0.94
305		1	2.41441	0.998098	0	0	-6515	1.04695	0	220	1	1.06	0.94
306		1	0.206718	-0.240994	0	0	-6515	1.04095	0	220	1	1.06	0.94
307		1	-0.00213816	44.95	0	0	-6515	0.970799	0	34.5	1	1.06	0.94
308		1	-0.000582198	121	0	0	-6515	0.921331	0	34.5	1	1.06	0.94
309		1	-0.000929806	44.8063	0	0	-6515	0.968705	0	34.5	1	1.06	0.94
310		1	-5.15674	0.932302	0	0	-6515	0.996358	0	34.5	1	1.06	0.94
311		1	-7.38529	-46.9352	0	0	-6515	0.996847	0	34.5	1	1.06	0.94
312		1	-1.20948	-36.9746	0	0	-6515	0.995255	0	34.5	1	1.06	0.94
313		1	-0.149277	-1.00472	0	0	-6515	1.05843	0	500	1	1.06	0.94
314		1	0.237939	-0.0272841	0	0	-6515	1.02608	0	220	2	1.06	0.94
315		1	0	0	0	0	-6515	1.02996	0	34.5	1	1.06	0.94
316		1	-0.00286054	-0.889089	0	0	-6515	1.03058	0	34.5	1	1.06	0.94
317		1	5.25061	6.10469	0	0	-6515	1.03014	0	34.5	1	1.06	0.94
318		1	3.38987	4.49057	0	0	-6515	1.02996	0	34.5	1	1.06	0.94
319		1	-0.630437	-0.192709	0	0	-6515	1.05554	0	500	1	1.06	0.94
320		1	273.511	63.4307	0	0	-6515	1.02352	0	220	1	1.06	0.94
321		1	-155.756	-19.2547	0	0	-6515	0.963086	0	15.75	1	1.06	0.94
322		1	-152.393	-31.6513	0	0	-6515	0.970916	0	15.75	1	1.06	0.94
323		1	-156.297	-14.4474	0	0	-6515	0.960054	0	15.75	1	1.06	0.94
324		1	-581.765	-89.9113	0	0	-6515	0.907731	0	19	1	1.06	0.94
325		1	-607.756	-71.8351	0	0	-6515	0.902281	0	19	1	1.06	0.94
326		1	-623.18	-80.1809	0	0	-6515	0.905813	0	19	1	1.06	0.94
327		1	-312.417	7.54064	0	0	-6515	0.885898	0	19	1	1.06	0.94
328		1	-309.527	8.85571	0	0	-6515	0.88549	0	19	1	1.06	0.94
329		2	0	0	0	0	-6515	1.01508	0	20	1	1.06	0.94
330		1	-238.854	-54.0572	0	0	-6515	1.01775	0	20	1	1.06	0.94
331		1	26.0119	-29.1302	0	0	-6515	1.04983	0	220	1	1.06	0.94
332		1	-4.44E-14	44.8333	0	0	-6515	0.88763	0	34.5	1	1.06	0.94
333		1	2.22E-14	0	0	0	-6515	0.934201	0	34.5	1	1.06	0.94
334		1	18.6924	-2.31205	0	0	-6515	0.978657	0	34.5	1	1.06	0.94
335		1	18.6515	5.27566	0	0	-6515	0.976664	0	34.5	1	1.06	0.94
336		1	3.73498	0.0704455	0	0	-6515	1.04791	0	500	1	1.06	0.94
337		1	167.789	62.9994	0	0	-6515	1.0561	0	220	1	1.06	0.94
338		1	234.527	67.8225	0	0	-6515	1.06285	0	220	1	1.06	0.94
339		1	165.935	50.4871	0	0	-6515	1.05364	0	220	1	1.06	0.94
340		1	229.614	18	0	0	-6515	1.03792	0	220	1	1.06	0.94
341		1	46.2992	2.0627	0	0	-6515	1.07124	0	220	1	1.06	0.94
342		1	-54.5964	-15.9664	0	0	-6515	1.04471	0	10.5	1	1.06	0.94
343		1	-140.097	-46.1798	0	0	-6515	1.02621	0	220	1	1.06	0.94
344		1	215.177	39.679	0	0	-6515	1.04627	0	220	1	1.06	0.94
345		1	109.371	26.0751	0	0	-6515	1.04883	0	220	1	1.06	0.94
346		1	-686.074	-71.5143	0	0	-6515	1.06289	0	500	1	1.06	0.94
347		2	0	0	0	0	-6515	0.986259	0	15.75	1	1.06	0.94
348		1	-56.0483	-26.7226	0	0	-6515	1.05597	0	220	1	1.06	0.94
349		1	9.57193	6.48322	0	0	-6515	1.0561	0	220	1	1.06	0.94
350		1	20.7454	16.2895	0	0	-6515	1.04484	0	220	1	1.06	0.94
351		1	-12	-4.55E-13	0	0	-6515	0.986538	0	34.5	1	1.06	0.94
352		1	0	0	0	0	-6515	0.987782	0	34.5	1	1.06	0.94
353		1	-2.13E-14	-31.9659	0	0	-6515	1.00456	0	34.5	1	1.06	0.94
354		1	-22.5442	153.925	0	0	-6515	0.917976	0	34.5	1	1.06	0.94
355		1	-22.5442	153.925	0	0	-6515	0.917976	0	34.5	1	1.06	0.94
356		1	13.1325	0.12262	0	0	-6515	0.986472	0	34.5	1	1.06	0.94
357		1	11.0952	13.273	0	0	-6515	0.987782	0	34.5	1	1.06	0.94
358		1	13.6967	7.61246	0	0	-6515	0.985376	0	34.5	1	1.06	0.94
359		1	4.23E-13	1.82E-12	0	0	-6515	1.00187	0	34.5	1	1.06	0.94
360		1	3.77E-13	1.82E-12	0	0	-6515	1.00187	0	34.5	1	1.06	0.94
361		1	458.842	-434.714	0	0	-6515	0.994494	0	400	1	1.06	0.94
362		1	-2.50232	-0.433772	0	0	-6515	1.0467	0	500	1	1.06	0.94
363		1	-0.88404	1.00515	0	0	-6515	1.04496	0	220	1	1.06	0.94
364		1	1.11E-05	1.88924	0	0	-6515	1.0449	0	220	1	1.06	0.94
365		1	171.587	-14.6686	0	0	-6515	1.04595	0	220	1	1.06	0.94
366		1	187.98	32.2042	0	0	-6515	1.06834	0	220	1	1.06	0.94
367		1	0.0260365	0.0558224	0	0	-6515	1.04889	0	220	1	1.06	0.94
368		1	-8.88E-14	59.7941	0	0	-6515	0.967277	0	34.5	1	1.06	0.94
369		1	-4.17374	1.00759	0	0	-6515	1.00344	0	34.5	1	1.06	0.94
370		1	-0.00952182	0.0443013	0	0	-6515	1.07026	0	500	1	1.06	0.94
371		1	222.545	71.1303	0	0	-6515	1.04204	0	220	1	1.06	0.94
372		1	-213.598	-31.5025	0	0	-6515	0.998176	0	20	1	1.06	0.94
373		1	-212.825	-27.1243	0	0	-6515	0.996514	0	20	1	1.06	0.94
374		1	-218.288	-42.0362	0	0	-6515	1.00194	0	20	1	1.06	0.94
375		2	0	0	0	0	-6515	1.00431	0	20	1	1.06	0.94
376		1	2.55934	8.81149	0	0	-6515	1.06118	0	220	1	1.06	0.94
377		1	-419.144	-134.76	0	0	-6515	1.00439	0	20	1	1.06	0.94
378		1	12.7803	32.8396	0	0	-6515	1.07987	0	220	1	1.06	0.94
379		1	116.085	21.6412	0	0	-6515	1.02178	0	220	3	1.06	0.94
380		1	338.304	31.8041	0	0	-6515	1.03326	0	220	1	1.06	0.94
381		1	248.303	32.395	0	0	-6515	1.03884	0	220	1	1.06	0.94
382		1	267.275	71.4663	0	0	-6515	1.03815	0	220	1	1.06	0.94
383		1	51.5272	13.1604	0	0	-6515	1.04456	0	220	1	1.06	0.94
384		1	-6.17137	-7.24936	0	0	-6515	1.03381	0	220	1	1.06	0.94
385		1	70.8404	-10.0419	0	0	-6515	1.0852	0	220	1	1.06	0.94
386		1	150.696	28.0375	0	0	-6515	1.05239	0	220	1	1.06	0.94
387		2	0	0	0	0	-6515	0.991275	0	20	1	1.06	0.94
388		1	-264.177	-76.7503	0	0	-6515	0.987488	0	20	1	1.06	0.94
389		1	-258.356	-80.5489	0	0	-6515	0.988093	0	20	1	1.06	0.94
390		1	-269.654	-79.7572	0	0	-6515	0.987897	0	20	1	1.06	0.94
391		1	0.761135	15.2672	0	0	-6515	1.0586	0	220	1	1.06	0.94
392		2	0	0	0	0	-6515	1.00782	0	20	1	1.06	0.94
393		2	0	0	0	0	-6515	1.03772	0	20	1	1.06	0.94
394		1	-0.604289	-0.0735049	0	0	-6515	1.06735	0	500	1	1.06	0.94
395		1	185.372	4.13111	0	0	-6515	1.024	0	220	1	1.06	0.94
396		1	-17.7537	15.5663	0	0	-6515	1.04477	0	220	1	1.06	0.94
397		2	0	0	0	0	-6515	0.978628	0	22	1	1.06	0.94
398		2	0	0	0	0	-6515	0.978623	0	22	1	1.06	0.94
399		1	14.131	-1.66094	0	0	-6515	1.03399	0	220	1	1.06	0.94
400		1	18.294	-1.25675	0	0	-6515	1.03966	0	220	1	1.06	0.94
401		1	22.3396	-3.21037	0	0	-6515	1.07309	0	220	1	1.06	0.94
402		1	276.512	34.2114	0	0	-6515	1.03059	0	220	1	1.06	0.94
403		1	442.647	78.5932	0	0	-6515	1.03049	0	220	1	1.06	0.94
404		1	118.726	23.7392	0	0	-6515	1.0762	0	220	1	1.06	0.94
405		1	317.26	15.5965	0	0	-6515	1.02316	0	220	1	1.06	0.94
406		1	271.513	-46.073	0	0	-6515	1.06225	0	220	1	1.06	0.94
407		1	371.403	91.5103	0	0	-6515	1.04522	0	220	1	1.06	0.94
408		1	-0.206797	-0.813665	0	0	-6515	1.04539	0	220	1	1.06	0.94
409		1	299.599	56.2904	0	0	-6515	1.02897	0	220	1	1.06	0.94
410		1	-0.206797	-0.813665	0	0	-6515	1.04539	0	220	1	1.06	0.94
411		1	29.4489	7.02484	0	0	-6515	1.02142	0	220	3	1.06	0.94
412		1	471.373	-34.3494	0	0	-6515	1.05379	0	220	1	1.06	0.94
413		1	152.289	11.4336	0	0	-6515	1.05228	0	220	1	1.06	0.94
414		1	51.3499	-1.41174	0	0	-6515	1.05502	0	220	1	1.06	0.94
415		1	103.824	13.8723	0	0	-6515	1.00331	0	220	1	1.06	0.94
416		1	0.70851	-0.200374	0	0	-6515	1.0515	0	220	1	1.06	0.94
417		1	0	-0.0562186	0	0	-6515	1.00583	0	34.5	1	1.06	0.94
418		1	4.44E-14	-0.0439769	0	0	-6515	1.00578	0	34.5	1	1.06	0.94
419		1	-5.15387	-1.36644	0	0	-6515	1.0058	0	34.5	1	1.06	0.94
420		1	-40.452	-4.12408	0	0	-6515	1.00575	0	34.5	1	1.06	0.94
421		1	-2571.7	-12.7853	0	0	-6515	1.06317	0	500	1	1.06	0.94
422		1	373.974	87.6717	0	0	-6515	1.03377	0	220	1	1.06	0.94
423		1	156.225	-27.2985	0	0	-6515	1.05722	0	220	1	1.06	0.94
424		1	-47.0653	-19.2471	0	0	-6515	1.00282	0	10.5	1	1.06	0.94
425		2	0	0	0	0	-6515	0.997509	0	10.5	1	1.06	0.94
426		1	-90.3257	-37.8086	0	0	-6515	0.996629	0	15.75	1	1.06	0.94
427		2	0	0	0	0	-6515	0.999695	0	15.75	1	1.06	0.94
428		1	-0.634394	-0.0576264	0	0	-6515	1.04305	0	220	1	1.06	0.94
429		1	0.136955	-1.57783	0	0	-6515	1.05257	0	220	1	1.06	0.94
430		1	307.024	58.55	0	0	-6515	1.04926	0	220	1	1.06	0.94
431		1	21.1832	-23.916	0	0	-6515	1.04891	0	500	1	1.06	0.94
432		1	-0.0686604	-0.703805	0	0	-6515	1.04155	0	220	1	1.06	0.94
433		1	465.127	80.5494	0	0	-6515	1.03623	0	220	1	1.06	0.94
434		1	0.815294	0.180022	0	0	-6515	1.04145	0	220	1	1.06	0.94
435		1	188.163	33.225	0	0	-6515	1.05109	0	220	1	1.06	0.94
436		1	377.716	10.7699	0	0	-6515	1.03134	0	220	1	1.06	0.94
437		1	330.363	94.6844	0	0	-6515	1.04359	0	220	1	1.06	0.94
438		2	0	0	0	0	-6515	1.00873	0	13.8	1	1.06	0.94
439		2	0	0	0	0	-6515	1.00783	0	15.75	1	1.06	0.94
440		1	1.19545	0.26782	0	0	-6515	1.11009	0	220	1	1.06	0.94
441		1	172.902	19.4017	0	0	-6515	1.0272	0	220	1	1.06	0.94
442		1	361.461	10.3175	0	0	-6515	1.04143	0	220	1	1.06	0.94
443		1	290.645	31.7989	0	0	-6515	1.04511	0	220	1	1.06	0.94
444		1	-283.122	-32.128	0	0	-6515	0.948802	0	20	1	1.06	0.94
445		1	-281.005	-25.8608	0	0	-6515	0.947486	0	20	1	1.06	0.94
446		1	0.182937	0.0934371	0	0	-6515	1.06538	0	500	1	1.06	0.94
447		1	42.3537	12.8156	0	0	-6515	1.04058	0	220	1	1.06	0.94
448		1	203.286	41.1579	0	0	-6515	1.04158	0	220	1	1.06	0.94
449		1	10.0598	-41.3768	0	0	-6515	1.07602	0	220	1	1.06	0.94
450		1	0.00834604	-0.0234999	0	0	-6515	1.04887	0	220	1	1.06	0.94
451		1	0.204511	-116.304	0	0	-6515	1.07613	0	34.5	1	1.06	0.94
452		1	0.202903	-122.646	0	0	-6515	1.08039	0	34.5	1	1.06	0.94
453		1	0.0945561	-116.792	0	0	-6515	1.07554	0	34.5	1	1.06	0.94
454		1	-0.00276967	-0.145165	0	0	-6515	0.989423	0	34.5	1	1.06	0.94
455		1	4.14796	-0.703041	0	0	-6515	1.0158	0	34.5	1	1.06	0.94
456		1	2.01968	-6.11267	0	0	-6515	1.01538	0	34.5	1	1.06	0.94
457		1	6.98887	-4.13189	0	0	-6515	1.01626	0	34.5	1	1.06	0.94
458		1	13.0618	1.47517	0	0	-6515	0.98934	0	34.5	1	1.06	0.94
459		1	-2873.36	197.97	0	0	-6515	1.0556	0	500	1	1.06	0.94
460		1	120.36	-15.7166	0	0	-6515	1.03874	0	220	1	1.06	0.94
461		1	-162.743	-44.2179	0	0	-6515	1.05736	0	220	1	1.06	0.94
462		1	171.557	36.3305	0	0	-6515	1.02405	0	220	1	1.06	0.94
463		1	-79.6593	-6.79953	0	0	-6515	1.06261	0	220	1	1.06	0.94
464		1	233.408	-3.02107	0	0	-6515	1.05891	0	220	1	1.06	0.94
465		1	38.7398	13.7696	0	0	-6515	1.02582	0	220	1	1.06	0.94
466		1	31.9226	14.2543	0	0	-6515	1.07545	0	220	1	1.06	0.94
467		1	387.133	44.2159	0	0	-6515	1.03921	0	220	1	1.06	0.94
468		1	-285.9	-49.0002	0	0	-6515	0.994839	0	20	1	1.06	0.94
469		1	-301.023	-20.3765	0	0	-6515	1.05549	0	220	1	1.06	0.94
470		1	68.1639	2.18524	0	0	-6515	1.01904	0	220	3	1.06	0.94
471		1	292.286	61.2309	0	0	-6515	1.03342	0	220	1	1.06	0.94
472		1	229.923	43.3042	0	0	-6515	1.03607	0	220	1	1.06	0.94
473		1	45.7389	6.72476	0	0	-6515	1.0539	0	220	1	1.06	0.94
474		1	107.973	12.7025	0	0	-6515	1.03988	0	220	1	1.06	0.94
475		1	12.65	60.1375	0	0	-6515	1.04241	0	220	1	1.06	0.94